Version 4
SHEET 1 880 680
WIRE 192 80 80 80
WIRE 288 80 192 80
WIRE 288 128 288 80
WIRE 80 144 80 80
WIRE 288 224 288 208
WIRE 368 224 288 224
WIRE 384 224 368 224
WIRE 288 240 288 224
WIRE 80 272 80 224
WIRE 80 272 -32 272
WIRE 80 288 80 272
WIRE 224 288 80 288
WIRE 80 304 80 288
WIRE -96 320 -96 272
WIRE 384 336 288 336
WIRE 480 336 464 336
WIRE 560 336 480 336
WIRE 480 352 480 336
WIRE 560 352 560 336
WIRE 80 432 80 384
WIRE 224 432 80 432
WIRE 480 432 224 432
WIRE 560 432 560 416
WIRE 560 432 480 432
WIRE 224 464 224 432
FLAG 224 464 0
FLAG 192 0 0
FLAG -96 320 Input
IOPIN -96 320 In
FLAG 432 224 Output
IOPIN 432 224 Out
SYMBOL voltage 192 96 R180
WINDOW 0 24 96 Left 2
WINDOW 3 24 16 Left 2
WINDOW 123 0 0 Left 0
WINDOW 39 0 0 Left 0
SYMATTR InstName Vcc
SYMATTR Value 10
SYMBOL res 64 128 R0
SYMATTR InstName R1
SYMATTR Value 200k
SYMBOL res 272 112 R0
SYMATTR InstName Rc
SYMATTR Value 22k
SYMBOL res 64 288 R0
SYMATTR InstName R3
SYMATTR Value 18k
SYMBOL npn 224 240 R0
SYMATTR InstName Q1
SYMATTR Value BC547B
SYMBOL res 480 320 R90
WINDOW 0 0 56 VBottom 2
WINDOW 3 32 56 VTop 2
SYMATTR InstName Re1
SYMATTR Value 2.56k
SYMBOL res 464 336 R0
SYMATTR InstName Re2
SYMATTR Value 1k
SYMBOL cap -32 256 R90
WINDOW 0 0 32 VBottom 2
WINDOW 3 32 32 VTop 2
SYMATTR InstName C1
SYMATTR Value 1µ
SYMBOL cap 544 352 R0
SYMATTR InstName Ce
SYMATTR Value 1µ
SYMBOL cap 432 208 R90
WINDOW 0 0 32 VBottom 2
WINDOW 3 32 32 VTop 2
SYMATTR InstName C2
SYMATTR Value 1µ
TEXT 72 504 Left 2 ;Gain of around 6
