Version 4
SHEET 1 3336 680
WIRE 2096 -384 1664 -384
WIRE -256 -352 -368 -352
WIRE -160 -352 -256 -352
WIRE -160 -304 -160 -352
WIRE -368 -288 -368 -352
WIRE -160 -208 -160 -224
WIRE -80 -208 -160 -208
WIRE -64 -208 -80 -208
WIRE 432 -208 -16 -208
WIRE 1024 -208 432 -208
WIRE 1168 -208 1168 -288
WIRE -160 -192 -160 -208
WIRE 1984 -176 1376 -176
WIRE -368 -160 -368 -208
WIRE -368 -160 -480 -160
WIRE 1504 -160 1504 -208
WIRE -368 -144 -368 -160
WIRE -224 -144 -368 -144
WIRE -368 -128 -368 -144
WIRE 2096 -128 2096 -384
WIRE -64 -96 -160 -96
WIRE 32 -96 16 -96
WIRE 112 -96 32 -96
WIRE 32 -80 32 -96
WIRE 112 -80 112 -96
WIRE 1168 -80 1168 -128
WIRE 1376 -80 1376 -176
WIRE 1376 -80 1168 -80
WIRE 1456 -80 1376 -80
WIRE 1504 -80 1504 -112
WIRE 1024 -48 1024 -208
WIRE 1168 -48 1168 -80
WIRE 1168 -48 1088 -48
WIRE 1504 -48 1504 -64
WIRE 1664 -48 1664 -384
WIRE 1664 -48 1504 -48
WIRE 1984 -48 1984 -176
WIRE 2048 -48 1984 -48
WIRE 2096 -48 2096 -80
WIRE 1168 -32 1168 -48
WIRE 1504 -32 1504 -48
WIRE 432 -16 432 -208
WIRE 432 -16 336 -16
WIRE 544 -16 432 -16
WIRE 2528 -16 2528 -32
WIRE -368 0 -368 -48
WIRE -224 0 -368 0
WIRE 32 0 -224 0
WIRE 112 0 112 -16
WIRE 112 0 32 0
WIRE 2096 0 2096 -32
WIRE 2256 0 2096 0
WIRE 2368 0 2336 0
WIRE 2496 0 2448 0
WIRE 2096 16 2096 0
WIRE 2368 16 2368 0
WIRE 2416 16 2368 16
WIRE 2592 16 2560 16
WIRE 2624 16 2592 16
WIRE -224 32 -224 0
WIRE 336 32 336 -16
WIRE 2496 32 2464 32
WIRE 544 48 544 -16
WIRE 2368 48 2368 16
WIRE 2416 48 2416 16
WIRE 2464 48 2464 32
WIRE 2464 48 2416 48
WIRE 2528 64 2528 48
WIRE -544 128 -544 -160
WIRE 336 128 336 96
WIRE 336 128 -544 128
WIRE 336 160 336 128
WIRE 2448 224 2448 0
WIRE 2480 224 2448 224
WIRE 2592 224 2592 16
WIRE 2592 224 2560 224
WIRE 432 240 336 240
WIRE 544 240 544 128
WIRE 544 240 432 240
WIRE 2448 288 2448 224
WIRE 432 304 432 240
FLAG -224 32 0
FLAG -256 -432 0
FLAG 432 304 0
FLAG 1168 48 0
FLAG 1168 -368 0
FLAG 1504 -288 0
FLAG 1504 48 0
FLAG 2096 96 0
FLAG 2528 144 0
FLAG 2528 -112 0
FLAG 2368 112 0
FLAG 2448 368 0
SYMBOL voltage -256 -336 R180
WINDOW 0 24 96 Left 2
WINDOW 3 24 16 Left 2
WINDOW 123 0 0 Left 0
WINDOW 39 0 0 Left 0
SYMATTR InstName Vcc1
SYMATTR Value 10
SYMBOL res -384 -304 R0
SYMATTR InstName R1
SYMATTR Value 200k
SYMBOL res -176 -320 R0
SYMATTR InstName Rc1
SYMATTR Value 22k
SYMBOL res -384 -144 R0
SYMATTR InstName R2
SYMATTR Value 18k
SYMBOL npn -224 -192 R0
SYMATTR InstName Q1
SYMATTR Value BC547B
SYMBOL res 32 -112 R90
WINDOW 0 0 56 VBottom 2
WINDOW 3 32 56 VTop 2
SYMATTR InstName Re1
SYMATTR Value 2.56k
SYMBOL res 16 -96 R0
SYMATTR InstName Re2
SYMATTR Value 1k
SYMBOL cap -480 -176 R90
WINDOW 0 0 32 VBottom 2
WINDOW 3 32 32 VTop 2
SYMATTR InstName C1
SYMATTR Value 1µ
SYMBOL cap 96 -80 R0
SYMATTR InstName Ce1
SYMATTR Value 1µ
SYMBOL cap -16 -224 R90
WINDOW 0 0 32 VBottom 2
WINDOW 3 32 32 VTop 2
SYMATTR InstName C2
SYMATTR Value 1µ
SYMBOL ind 320 144 R0
SYMATTR InstName L1
SYMATTR Value 220µ
SYMBOL ind 528 32 R0
SYMATTR InstName L2
SYMATTR Value 220µ
SYMBOL cap 320 32 R0
SYMATTR InstName C3
SYMATTR Value 1n
SYMBOL nmos4 1456 -160 R0
SYMATTR InstName M1
SYMATTR Value CMOSN
SYMATTR Value2 l={2*LAMBDA} w={width_N} ad={5*width_ N*LAMBDA} as={5*width_ N*LAMBDA} pd={10*LAMBDA+2*width_N} ps={10*LAMBDA+2*width_N}
SYMBOL res 1152 -224 R0
SYMATTR InstName R3
SYMATTR Value 770k
SYMBOL res 1152 -48 R0
SYMATTR InstName R4
SYMATTR Value 230k
SYMBOL cap 1088 -64 R90
WINDOW 0 0 32 VBottom 2
WINDOW 3 32 32 VTop 2
SYMATTR InstName C_c1
SYMATTR Value 10µ
SYMBOL voltage 1168 -272 R180
WINDOW 0 24 96 Left 2
WINDOW 3 24 16 Left 2
SYMATTR InstName V_bias1
SYMATTR Value 10
SYMBOL voltage 1504 -192 R180
WINDOW 0 24 96 Left 2
WINDOW 3 24 16 Left 2
WINDOW 123 0 0 Left 0
WINDOW 39 0 0 Left 0
SYMATTR InstName V_in1
SYMATTR Value SINE(0 600m 1k)
SYMBOL res 1488 -48 R0
SYMATTR InstName R_L1
SYMATTR Value 1k
SYMBOL nmos4 2048 -128 R0
SYMATTR InstName M2
SYMATTR Value CMOSN
SYMATTR Value2 l={2*LAMBDA} w={width_N} ad={5*width_ N*LAMBDA} as={5*width_ N*LAMBDA} pd={10*LAMBDA+2*width_N} ps={10*LAMBDA+2*width_N}
SYMBOL res 2080 0 R0
SYMATTR InstName R5
SYMATTR Value 1k
SYMBOL OpAmps\\opamp2 2528 -48 R0
SYMATTR InstName U1
SYMATTR Value UA741
SYMBOL voltage 2528 160 R180
WINDOW 0 24 96 Left 2
WINDOW 3 24 16 Left 2
WINDOW 123 0 0 Left 0
WINDOW 39 0 0 Left 0
SYMATTR InstName V1
SYMATTR Value 10
SYMBOL voltage 2528 -16 R180
WINDOW 0 24 96 Left 2
WINDOW 3 24 16 Left 2
WINDOW 123 0 0 Left 0
WINDOW 39 0 0 Left 0
SYMATTR InstName V2
SYMATTR Value 10
SYMBOL res 2352 -16 R90
WINDOW 0 0 56 VBottom 2
WINDOW 3 32 56 VTop 2
SYMATTR InstName R7
SYMATTR Value 150k
SYMBOL cap 2352 48 R0
SYMATTR InstName C5
SYMATTR Value 1n
SYMBOL res 2576 208 R90
WINDOW 0 0 56 VBottom 2
WINDOW 3 32 56 VTop 2
SYMATTR InstName R8
SYMATTR Value 10k
SYMBOL res 2464 384 R180
WINDOW 0 36 76 Left 2
WINDOW 3 36 40 Left 2
SYMATTR InstName R9
SYMATTR Value 1k
TEXT 1136 200 Left 2 !.include TSMC_180nm.txt
TEXT 1136 232 Left 2 !.param width_N=1u
TEXT 1136 256 Left 2 !.param LAMBDA=0.09u
TEXT -550 328 Left 2 !.tran 10m
TEXT 1144 168 Left 2 !.include UA741.301
