Version 4
SHEET 1 3336 680
WIRE 1184 -384 1184 -416
WIRE 1536 -384 1344 -384
WIRE -256 -352 -368 -352
WIRE -160 -352 -256 -352
WIRE -160 -304 -160 -352
WIRE -368 -288 -368 -352
WIRE -160 -208 -160 -224
WIRE -80 -208 -160 -208
WIRE -64 -208 -80 -208
WIRE 432 -208 -16 -208
WIRE 704 -208 432 -208
WIRE 848 -208 848 -288
WIRE -160 -192 -160 -208
WIRE 1424 -176 1056 -176
WIRE -368 -160 -368 -208
WIRE -368 -160 -480 -160
WIRE 1184 -160 1184 -384
WIRE -368 -144 -368 -160
WIRE -224 -144 -368 -144
WIRE -368 -128 -368 -144
WIRE 1536 -128 1536 -384
WIRE -64 -96 -160 -96
WIRE 32 -96 16 -96
WIRE 112 -96 32 -96
WIRE 32 -80 32 -96
WIRE 112 -80 112 -96
WIRE 848 -80 848 -128
WIRE 1056 -80 1056 -176
WIRE 1056 -80 848 -80
WIRE 1136 -80 1056 -80
WIRE 1184 -80 1184 -112
WIRE 704 -48 704 -208
WIRE 848 -48 848 -80
WIRE 848 -48 768 -48
WIRE 1184 -48 1184 -64
WIRE 1344 -48 1344 -384
WIRE 1344 -48 1184 -48
WIRE 1424 -48 1424 -176
WIRE 1488 -48 1424 -48
WIRE 1536 -48 1536 -80
WIRE 848 -32 848 -48
WIRE 1184 -32 1184 -48
WIRE 432 -16 432 -208
WIRE 432 -16 336 -16
WIRE 544 -16 432 -16
WIRE 1968 -16 1968 -32
WIRE -368 0 -368 -48
WIRE -224 0 -368 0
WIRE 32 0 -224 0
WIRE 112 0 112 -16
WIRE 112 0 32 0
WIRE 1536 0 1536 -32
WIRE 1696 0 1536 0
WIRE 1808 0 1776 0
WIRE 1936 0 1888 0
WIRE 1536 16 1536 0
WIRE 1808 16 1808 0
WIRE 1856 16 1808 16
WIRE 2032 16 2000 16
WIRE 2064 16 2032 16
WIRE -224 32 -224 0
WIRE 336 32 336 -16
WIRE 1936 32 1904 32
WIRE 544 48 544 -16
WIRE 1808 48 1808 16
WIRE 1856 48 1856 16
WIRE 1904 48 1904 32
WIRE 1904 48 1856 48
WIRE 1968 64 1968 48
WIRE -544 128 -544 -160
WIRE 336 128 336 96
WIRE 336 128 -544 128
WIRE 336 160 336 128
WIRE 1888 224 1888 0
WIRE 1920 224 1888 224
WIRE 2032 224 2032 16
WIRE 2032 224 2000 224
WIRE 432 240 336 240
WIRE 544 240 544 128
WIRE 544 240 432 240
WIRE 1888 288 1888 224
WIRE 432 304 432 240
FLAG -224 32 0
FLAG -256 -432 0
FLAG 432 304 0
FLAG 848 48 0
FLAG 848 -368 0
FLAG 1184 -496 0
FLAG 1184 48 0
FLAG 1536 96 0
FLAG 1968 144 0
FLAG 1968 -112 0
FLAG 1808 112 0
FLAG 1888 368 0
FLAG 704 -208 Osc_out
IOPIN 704 -208 Out
FLAG 1184 -384 Input
IOPIN 1184 -384 Out
FLAG 1184 -48 Modulated_output
IOPIN 1184 -48 Out
DATAFLAG 1184 -192 ""
SYMBOL voltage -256 -336 R180
WINDOW 0 24 96 Left 2
WINDOW 3 24 16 Left 2
WINDOW 123 0 0 Left 0
WINDOW 39 0 0 Left 0
SYMATTR InstName Vcc1
SYMATTR Value 10
SYMBOL res -384 -304 R0
SYMATTR InstName R1
SYMATTR Value 200k
SYMBOL res -176 -320 R0
SYMATTR InstName Rc1
SYMATTR Value 22k
SYMBOL res -384 -144 R0
SYMATTR InstName R2
SYMATTR Value 18k
SYMBOL npn -224 -192 R0
SYMATTR InstName Q1
SYMATTR Value BC547B
SYMBOL res 32 -112 R90
WINDOW 0 0 56 VBottom 2
WINDOW 3 32 56 VTop 2
SYMATTR InstName Re1
SYMATTR Value 2.56k
SYMBOL res 16 -96 R0
SYMATTR InstName Re2
SYMATTR Value 1k
SYMBOL cap -480 -176 R90
WINDOW 0 0 32 VBottom 2
WINDOW 3 32 32 VTop 2
SYMATTR InstName C1
SYMATTR Value 1µ
SYMBOL cap 96 -80 R0
SYMATTR InstName Ce1
SYMATTR Value 1µ
SYMBOL cap -16 -224 R90
WINDOW 0 0 32 VBottom 2
WINDOW 3 32 32 VTop 2
SYMATTR InstName C2
SYMATTR Value 1µ
SYMBOL ind 320 144 R0
SYMATTR InstName L1
SYMATTR Value 220µ
SYMBOL ind 528 32 R0
SYMATTR InstName L2
SYMATTR Value 220µ
SYMBOL cap 320 32 R0
SYMATTR InstName C3
SYMATTR Value 1n
SYMBOL nmos4 1136 -160 R0
SYMATTR InstName M1
SYMATTR Value CMOSN
SYMATTR Value2 l={2*LAMBDA} w={width_N} ad={5*width_ N*LAMBDA} as={5*width_ N*LAMBDA} pd={10*LAMBDA+2*width_N} ps={10*LAMBDA+2*width_N}
SYMBOL res 832 -224 R0
SYMATTR InstName R3
SYMATTR Value 770k
SYMBOL res 832 -48 R0
SYMATTR InstName R4
SYMATTR Value 230k
SYMBOL cap 768 -64 R90
WINDOW 0 0 32 VBottom 2
WINDOW 3 32 32 VTop 2
SYMATTR InstName C_c1
SYMATTR Value 10µ
SYMBOL voltage 848 -272 R180
WINDOW 0 24 96 Left 2
WINDOW 3 24 16 Left 2
SYMATTR InstName V_bias1
SYMATTR Value 10
SYMBOL voltage 1184 -400 R180
WINDOW 0 24 96 Left 2
WINDOW 3 24 16 Left 2
WINDOW 123 0 0 Left 0
WINDOW 39 0 0 Left 0
SYMATTR InstName V_in1
SYMATTR Value SINE(0 600m 10k)
SYMBOL res 1168 -48 R0
SYMATTR InstName R_L1
SYMATTR Value 1k
SYMBOL nmos4 1488 -128 R0
SYMATTR InstName M2
SYMATTR Value CMOSN
SYMATTR Value2 l={2*LAMBDA} w={width_N} ad={5*width_ N*LAMBDA} as={5*width_ N*LAMBDA} pd={10*LAMBDA+2*width_N} ps={10*LAMBDA+2*width_N}
SYMBOL res 1520 0 R0
SYMATTR InstName R5
SYMATTR Value 1k
SYMBOL OpAmps\\opamp2 1968 -48 R0
SYMATTR InstName U1
SYMATTR Value UA741
SYMBOL voltage 1968 160 R180
WINDOW 0 24 96 Left 2
WINDOW 3 24 16 Left 2
WINDOW 123 0 0 Left 0
WINDOW 39 0 0 Left 0
SYMATTR InstName V1
SYMATTR Value 10
SYMBOL voltage 1968 -16 R180
WINDOW 0 24 96 Left 2
WINDOW 3 24 16 Left 2
WINDOW 123 0 0 Left 0
WINDOW 39 0 0 Left 0
SYMATTR InstName V2
SYMATTR Value 10
SYMBOL res 1792 -16 R90
WINDOW 0 0 56 VBottom 2
WINDOW 3 32 56 VTop 2
SYMATTR InstName R7
SYMATTR Value 150k
SYMBOL cap 1792 48 R0
SYMATTR InstName C5
SYMATTR Value 1n
SYMBOL res 2016 208 R90
WINDOW 0 0 56 VBottom 2
WINDOW 3 32 56 VTop 2
SYMATTR InstName R8
SYMATTR Value 9k
SYMBOL res 1904 384 R180
WINDOW 0 36 76 Left 2
WINDOW 3 36 40 Left 2
SYMATTR InstName R9
SYMATTR Value 1k
SYMBOL cap 2128 0 R90
WINDOW 0 0 32 VBottom 2
WINDOW 3 32 32 VTop 2
SYMATTR InstName C4
SYMATTR Value 10µ
TEXT 816 200 Left 2 !.include TSMC_180nm.txt
TEXT 816 232 Left 2 !.param width_N=1u
TEXT 816 256 Left 2 !.param LAMBDA=0.09u
TEXT -552 328 Left 2 !.tran 10m
TEXT 824 168 Left 2 !.include UA741.301
