Version 4
SHEET 1 1028 680
WIRE 144 -48 32 -48
WIRE 240 -48 144 -48
WIRE 240 0 240 -48
WIRE 32 16 32 -48
WIRE 240 96 240 80
WIRE 320 96 240 96
WIRE 336 96 320 96
WIRE 832 96 384 96
WIRE 240 112 240 96
WIRE 32 144 32 96
WIRE 32 144 -80 144
WIRE 32 160 32 144
WIRE 176 160 32 160
WIRE 32 176 32 160
WIRE 336 208 240 208
WIRE 432 208 416 208
WIRE 512 208 432 208
WIRE 432 224 432 208
WIRE 512 224 512 208
WIRE 832 288 832 96
WIRE 832 288 736 288
WIRE 944 288 832 288
WIRE 32 304 32 256
WIRE 176 304 32 304
WIRE 432 304 176 304
WIRE 512 304 512 288
WIRE 512 304 432 304
WIRE 176 336 176 304
WIRE 736 336 736 288
WIRE 944 352 944 288
WIRE -144 432 -144 144
WIRE 736 432 736 400
WIRE 736 432 -144 432
WIRE 736 464 736 432
WIRE 832 544 736 544
WIRE 944 544 944 432
WIRE 944 544 832 544
WIRE 832 608 832 544
FLAG 176 336 0
FLAG 144 -128 0
FLAG 832 608 0
SYMBOL voltage 144 -32 R180
WINDOW 0 24 96 Left 2
WINDOW 3 24 16 Left 2
WINDOW 123 0 0 Left 0
WINDOW 39 0 0 Left 0
SYMATTR InstName Vcc1
SYMATTR Value 12
SYMBOL res 16 0 R0
SYMATTR InstName R1
SYMATTR Value 200k
SYMBOL res 224 -16 R0
SYMATTR InstName Rc1
SYMATTR Value 22k
SYMBOL res 16 160 R0
SYMATTR InstName R2
SYMATTR Value 18k
SYMBOL npn 176 112 R0
SYMATTR InstName Q1
SYMATTR Value BC547B
SYMBOL res 432 192 R90
WINDOW 0 0 56 VBottom 2
WINDOW 3 32 56 VTop 2
SYMATTR InstName Re1
SYMATTR Value 2.56k
SYMBOL res 416 208 R0
SYMATTR InstName Re2
SYMATTR Value 1k
SYMBOL cap -80 128 R90
WINDOW 0 0 32 VBottom 2
WINDOW 3 32 32 VTop 2
SYMATTR InstName C1
SYMATTR Value 1µ
SYMBOL cap 496 224 R0
SYMATTR InstName Ce1
SYMATTR Value 1µ
SYMBOL cap 384 80 R90
WINDOW 0 0 32 VBottom 2
WINDOW 3 32 32 VTop 2
SYMATTR InstName C2
SYMATTR Value 1µ
SYMBOL ind 720 448 R0
SYMATTR InstName L1
SYMATTR Value 220µ
SYMBOL ind 928 336 R0
SYMATTR InstName L2
SYMATTR Value 220µ
SYMBOL cap 720 336 R0
SYMATTR InstName C3
SYMATTR Value 1n
